Version 4
SHEET 1 1328 832
WIRE 272 -400 208 -400
WIRE 640 -400 272 -400
WIRE 208 -384 208 -400
WIRE 272 -320 272 -400
WIRE 384 -272 336 -272
WIRE 640 -272 640 -320
WIRE 640 -272 464 -272
WIRE 112 16 -16 16
WIRE 208 16 176 16
WIRE 336 16 208 16
WIRE 480 16 400 16
WIRE -16 160 -16 16
WIRE -16 160 -496 160
WIRE 336 160 -16 160
WIRE 480 160 480 16
WIRE 480 160 432 160
WIRE 592 160 480 160
WIRE 736 160 672 160
WIRE 848 160 736 160
WIRE 736 192 736 160
WIRE 848 192 848 160
WIRE 208 208 208 16
WIRE -496 240 -496 160
WIRE 208 336 208 288
WIRE 416 336 416 208
WIRE 416 336 208 336
WIRE 208 368 208 336
WIRE 736 384 736 256
WIRE 848 384 848 272
WIRE 16 416 -16 416
WIRE 144 416 96 416
WIRE -16 432 -16 416
WIRE -496 448 -496 320
WIRE 208 512 208 464
WIRE -16 576 -16 512
FLAG -496 448 0
FLAG 208 -384 0
FLAG 848 384 0
FLAG -16 576 0
FLAG 208 512 0
FLAG 736 384 0
SYMBOL voltage -496 224 R0
WINDOW 123 0 0 Left 0
WINDOW 39 0 0 Left 0
SYMATTR InstName V1
SYMATTR Value 15
SYMBOL npn 336 -224 R180
SYMATTR InstName Q1
SYMATTR Value BC547B
SYMBOL Misc\\signal 640 -304 R180
WINDOW 0 24 104 Left 2
WINDOW 3 24 16 Left 2
WINDOW 123 0 0 Left 0
WINDOW 39 0 0 Left 0
SYMATTR InstName V2
SYMATTR Value PULSE(0 5 0 0 0 16.4u 20u)
SYMBOL res 480 -288 R90
WINDOW 0 0 56 VBottom 2
WINDOW 3 32 56 VTop 2
SYMATTR InstName R3
SYMATTR Value 100
SYMBOL res 832 176 R0
SYMATTR InstName R1
SYMATTR Value 8
SYMBOL res 112 400 R90
WINDOW 0 5 56 VBottom 2
WINDOW 3 27 56 VTop 2
SYMATTR InstName R2
SYMATTR Value 100
SYMBOL Misc\\signal -16 416 M0
WINDOW 0 24 104 Left 2
WINDOW 3 24 16 Left 2
WINDOW 123 0 0 Left 0
WINDOW 39 0 0 Left 0
SYMATTR InstName V3
SYMATTR Value PULSE(0 5 0 0 0 16.4u 20u)
SYMBOL nmos 336 208 R270
SYMATTR InstName M1
SYMATTR Value irl530n
SYMATTR Prefix X
SYMBOL cap 400 0 R90
WINDOW 0 0 32 VBottom 2
WINDOW 3 32 32 VTop 2
SYMATTR InstName C1
SYMATTR Value 6.7µ
SYMBOL diode 112 32 R270
WINDOW 0 32 32 VTop 2
WINDOW 3 0 32 VBottom 2
SYMATTR InstName D1
SYMATTR Value 1N4148
SYMBOL npn 144 368 R0
SYMATTR InstName Q2
SYMATTR Value BC547B
SYMBOL res 192 192 R0
SYMATTR InstName R4
SYMATTR Value 1000
SYMBOL ind 576 176 R270
WINDOW 0 32 56 VTop 2
WINDOW 3 5 56 VBottom 2
SYMATTR InstName L1
SYMATTR Value 1.8µ
SYMBOL cap 720 192 R0
SYMATTR InstName C2
SYMATTR Value 470µ
SYMBOL OpAmps\\MAX4354 656 576 M0
SYMATTR InstName U1
SYMBOL OpAmps\\MAX4354 656 720 M0
SYMATTR InstName U2
TEXT -1992 592 Left 2 !.inc "C:\\Users\\simo2\\OneDrive - Danmarks Tekniske Universitet\\Dokumenter\\GitHub\\ee-projekt\\Calculations\\BuckBoost_converter_sim\\9530n.spi"
TEXT -1088 520 Left 2 !.tran 0 10000u 0
TEXT -1992 640 Left 2 !.inc "C:\\Users\\simo2\\OneDrive - Danmarks Tekniske Universitet\\Dokumenter\\GitHub\\ee-projekt\\Calculations\\BuckBoost_converter_sim\\sihl530.lib"
