Version 4
SHEET 1 1176 680
WIRE 368 -272 256 -272
WIRE 560 -272 464 -272
WIRE 688 -272 560 -272
WIRE 1056 -272 688 -272
WIRE 560 -208 560 -272
WIRE -256 -192 -336 -192
WIRE -128 -192 -256 -192
WIRE 256 -192 256 -272
WIRE 256 -192 -128 -192
WIRE 288 -192 256 -192
WIRE 416 -192 416 -208
WIRE 416 -192 368 -192
WIRE -336 -176 -336 -192
WIRE -256 -176 -256 -192
WIRE -128 -176 -128 -192
WIRE 688 -160 688 -272
WIRE 1056 -160 1056 -272
WIRE 656 -144 640 -144
WIRE 1024 -144 928 -144
WIRE 416 -128 416 -192
WIRE 896 -128 720 -128
WIRE 560 -112 560 -128
WIRE 656 -112 560 -112
WIRE 1024 -112 992 -112
WIRE -336 -96 -336 -112
WIRE -336 -96 -416 -96
WIRE -256 -96 -256 -112
WIRE -176 -96 -256 -96
WIRE 560 -96 560 -112
WIRE -336 -80 -336 -96
WIRE -256 -80 -256 -96
WIRE -336 0 -336 -16
WIRE -256 0 -256 -16
WIRE -256 0 -336 0
WIRE -128 0 -128 -112
WIRE -128 0 -256 0
WIRE 64 0 -128 0
WIRE 208 0 64 0
WIRE 416 0 416 -64
WIRE 416 0 208 0
WIRE 560 0 560 -16
WIRE 560 0 416 0
WIRE 688 0 688 -96
WIRE 688 0 560 0
WIRE 1056 0 1056 -96
WIRE 1056 0 688 0
WIRE -416 16 -416 -96
WIRE -128 16 -128 0
WIRE 208 96 208 0
WIRE 928 96 928 -144
WIRE 928 96 208 96
WIRE 208 128 208 96
WIRE -416 144 -416 96
WIRE -176 144 -176 -96
WIRE -176 144 -416 144
WIRE 208 224 208 208
WIRE 992 224 992 -112
WIRE 992 224 208 224
WIRE 208 320 208 224
WIRE 896 368 896 -128
WIRE 896 368 272 368
WIRE 208 432 208 416
WIRE 640 432 640 -144
WIRE 640 432 208 432
WIRE 208 464 208 432
WIRE 352 464 208 464
WIRE 208 480 208 464
WIRE 352 480 352 464
WIRE 64 608 64 0
WIRE 208 608 208 560
WIRE 208 608 64 608
WIRE 352 608 352 560
WIRE 352 608 208 608
FLAG -128 16 0
SYMBOL Misc\\signal -416 0 R0
WINDOW 123 0 0 Left 0
WINDOW 39 0 0 Left 0
SYMATTR InstName V1
SYMATTR Value SINE(0 21 50)
SYMBOL diode -240 -112 R180
WINDOW 0 24 64 Left 2
WINDOW 3 24 0 Left 2
SYMATTR InstName D2
SYMBOL diode -240 -16 R180
WINDOW 0 24 64 Left 2
WINDOW 3 24 0 Left 2
SYMATTR InstName D1
SYMBOL diode -320 -16 R180
WINDOW 0 24 64 Left 2
WINDOW 3 24 0 Left 2
SYMATTR InstName D3
SYMBOL diode -320 -112 R180
WINDOW 0 24 64 Left 2
WINDOW 3 24 0 Left 2
SYMATTR InstName D4
SYMBOL cap -144 -176 R0
SYMATTR InstName C1
SYMATTR Value 1m
SYMBOL npn 368 -208 R270
SYMATTR InstName Q1
SYMATTR Value bc547a
SYMBOL zener 432 -64 R180
WINDOW 0 24 64 Left 2
WINDOW 3 24 0 Left 2
SYMATTR InstName D5
SYMATTR Value BZX84C15L
SYMBOL res 384 -208 R90
WINDOW 0 5 56 VBottom 2
WINDOW 3 27 56 VTop 2
SYMATTR InstName R1
SYMATTR Value 10k
SYMBOL Contrib\\Wurth\\PowerMagnetics\\Transformer\\CurrentSense\\MID-CST-EE13 -352 -352 R0
SYMATTR InstName T1
SYMBOL OpAmps\\LTC6240 688 -128 R0
SYMATTR InstName U1
SYMBOL res 544 -224 R0
SYMATTR InstName R2
SYMATTR Value 660k
SYMBOL res 544 -112 R0
SYMATTR InstName R3
SYMATTR Value 330k
SYMBOL npn 272 320 M0
SYMATTR InstName Q2
SYMATTR Value bc547a
SYMBOL res 192 464 R0
SYMATTR InstName Roc
SYMATTR Value 1000k
SYMBOL res 336 464 R0
SYMATTR InstName R4
SYMATTR Value 1
SYMBOL OpAmps\\LTC6240 1056 -128 R0
SYMATTR InstName U2
SYMBOL res 192 112 R0
SYMATTR InstName R5
SYMATTR Value 0.1
TEXT -568 200 Left 2 !.tran 1
