Version 4
SHEET 1 880 680
WIRE 64 -48 -240 -48
WIRE 208 -16 160 -16
WIRE 256 -16 208 -16
WIRE 352 -16 256 -16
WIRE 464 -16 352 -16
WIRE 560 -16 464 -16
WIRE 64 48 64 -48
WIRE 160 48 64 48
WIRE 352 48 352 -16
WIRE 560 48 560 -16
WIRE -320 64 -320 -48
WIRE 208 64 208 48
WIRE 208 64 -240 64
WIRE 464 64 416 64
WIRE 256 80 256 48
WIRE 256 80 64 80
WIRE 416 80 416 64
WIRE 160 96 160 48
WIRE 208 96 208 64
WIRE 256 96 256 80
WIRE 208 160 160 160
WIRE 256 160 208 160
WIRE 352 160 352 112
WIRE 352 160 256 160
WIRE 416 160 416 144
WIRE 416 160 352 160
WIRE 464 160 464 144
WIRE 464 160 416 160
WIRE 560 160 560 128
WIRE 560 160 464 160
WIRE -320 176 -320 64
WIRE 64 176 64 80
WIRE 64 176 -240 176
FLAG 352 160 0
FLAG -320 64 0
SYMBOL diode 176 48 R180
WINDOW 0 24 64 Left 2
WINDOW 3 24 0 Left 2
SYMATTR InstName D2
SYMATTR Value DI_1N4006
SYMBOL diode 224 48 R180
WINDOW 0 24 64 Left 2
WINDOW 3 24 0 Left 2
SYMATTR InstName D3
SYMATTR Value DI_1N4006
SYMBOL diode 272 48 R180
WINDOW 0 24 64 Left 2
WINDOW 3 24 0 Left 2
SYMATTR InstName D6
SYMATTR Value DI_1N4006
SYMBOL cap 336 48 R0
SYMATTR InstName C1
SYMATTR Value 150m
SYMBOL res 544 32 R0
SYMATTR InstName R1
SYMATTR Value 50
SYMBOL res 448 -32 R0
SYMATTR InstName R2
SYMATTR Value 100k
SYMBOL res 448 48 R0
SYMATTR InstName R3
SYMATTR Value 20k
SYMBOL cap 400 80 R0
WINDOW 3 -2 44 Left 2
SYMATTR Value 5µ
SYMATTR InstName C2
SYMBOL voltage -224 -48 R90
WINDOW 0 -32 56 VBottom 2
WINDOW 3 32 56 VTop 2
WINDOW 123 0 0 Left 0
WINDOW 39 0 0 Left 0
SYMATTR InstName V1
SYMATTR Value SINE(0 15.74591644 100 0 0 0)
SYMBOL voltage -224 64 R90
WINDOW 0 -32 56 VBottom 2
WINDOW 3 32 56 VTop 2
WINDOW 123 0 0 Left 0
WINDOW 39 0 0 Left 0
SYMATTR InstName V2
SYMATTR Value SINE(0 15.74591644 100 0 0 120)
SYMBOL voltage -224 176 R90
WINDOW 0 -32 56 VBottom 2
WINDOW 3 32 56 VTop 2
WINDOW 123 0 0 Left 0
WINDOW 39 0 0 Left 0
SYMATTR InstName V3
SYMATTR Value SINE(0 15.74591644 100 0 0 240)
SYMBOL diode 176 160 R180
WINDOW 0 24 64 Left 2
WINDOW 3 24 0 Left 2
SYMATTR InstName D1
SYMATTR Value DI_1N4006
SYMBOL diode 224 160 R180
WINDOW 0 24 64 Left 2
WINDOW 3 24 0 Left 2
SYMATTR InstName D4
SYMATTR Value DI_1N4006
SYMBOL diode 272 160 R180
WINDOW 0 24 64 Left 2
WINDOW 3 24 0 Left 2
SYMATTR InstName D5
SYMATTR Value DI_1N4006
TEXT -416 240 Left 2 !.tran 1s
