Version 4
SHEET 1 880 680
WIRE 288 240 224 240
WIRE 464 240 368 240
WIRE 480 240 464 240
WIRE 576 240 544 240
WIRE 720 240 576 240
WIRE 224 288 224 240
WIRE 464 288 464 240
WIRE 576 304 576 240
WIRE 720 304 720 240
WIRE 416 336 352 336
WIRE 416 368 416 336
WIRE 224 416 224 368
WIRE 288 416 224 416
WIRE 352 416 288 416
WIRE 464 416 464 384
WIRE 464 416 352 416
WIRE 576 416 576 368
WIRE 576 416 464 416
WIRE 720 416 720 384
WIRE 720 416 576 416
WIRE 288 432 288 416
FLAG 288 432 0
SYMBOL ind 272 256 R270
WINDOW 0 32 56 VTop 2
WINDOW 3 5 56 VBottom 2
SYMATTR InstName L1
SYMATTR Value 166.7µ
SYMBOL cap 560 304 R0
SYMATTR InstName C1
SYMATTR Value 23n
SYMBOL res 704 288 R0
SYMATTR InstName R1
SYMATTR Value 66.7
SYMBOL diode 480 256 R270
WINDOW 0 32 32 VTop 2
WINDOW 3 0 32 VBottom 2
SYMATTR InstName D1
SYMATTR Value 1N5817
SYMBOL nmos 416 288 R0
SYMATTR InstName M1
SYMATTR Value IRL530NS_L
SYMBOL voltage 224 272 R0
SYMATTR InstName V1
SYMATTR Value 5
SYMBOL voltage 352 320 R0
SYMATTR InstName V2
SYMATTR Value PULSE(0 5 0 0 0 0.00001 0.00002)
